Circuit: * C:\Users\Bruce Banner\Documents\GitHub\ADC_experiments\ideal_sims\almost_ideal_curr_src.asc

Direct Newton iteration failed to find .op point.  (Use ".option noopiter" to skip.)
Starting Gmin stepping
Gmin = 10
Gmin = 1.07374
Gmin = 0.115292
Gmin = 0.0123794
Gmin = 0.00132923
Gmin = 0.000142725
vernier = 0.5
vernier = 0.25
vernier = 0.125
vernier = 0.0625
vernier = 0.03125
Gmin = 0.000167911
vernier = 0.015625
vernier = 0.0078125
vernier = 0.0104167
Gmin = 0.000165849
vernier = 0.0138889
Gmin = 0.000160894
vernier = 0.0185185
vernier = 0.0246913
Gmin = 0.000153102
vernier = 0.0329218
vernier = 0.0438957
Gmin = 0.000141535
vernier = 0.0585276
Gmin = 0.00012463
vernier = 0.0780367
vernier = 0.104049
Gmin = 0.000101277
vernier = 0.138732
vernier = 0.184976
Gmin = 7.30423e-005
vernier = 0.246634
Gmin = 4.32001e-005
vernier = 0.328846
vernier = 0.438461
Gmin = 1.854e-005
vernier = 0.584614
vernier = 0.779486
Gmin = 5.00974e-006
vernier = 1
Gmin = 6.73999e-007
Gmin = 7.23701e-008
vernier = 0.5
vernier = 0.666667
Gmin = 2.52904e-008
vernier = 0.888888
vernier = 1
Gmin = 3.82213e-009
Gmin = 4.10398e-010
Gmin = 4.40661e-011
Gmin = 4.73156e-012
Gmin = 5.08048e-013
Gmin = 0
Gmin stepping succeeded in finding the operating point.

Ignoring empty pin current: Ix(x1:fb)
Ignoring empty pin current: Ix(x1:ref)
Ignoring empty pin current: Ix(x2:fb)
Ignoring empty pin current: Ix(x2:ref)
Ignoring empty pin current: Ix(x1:fb)
Ignoring empty pin current: Ix(x1:ref)
Ignoring empty pin current: Ix(x2:fb)
Ignoring empty pin current: Ix(x2:ref)
.step res=1000
.step res=10000
.step res=100000

Date: Tue Jul 30 17:49:34 2019
Total elapsed time: 0.784 seconds.

tnom = 27
temp = 27
method = modified trap
totiter = 8484
traniter = 6090
tranpoints = 2204
accept = 1823
rejected = 381
matrix size = 31
fillins = 3
Matrix Compiler1: 4.09 KB object code size  0.7/0.5/[0.4]
Matrix Compiler2: off  [0.5]/0.7/0.5

