Circuit: * C:\Users\Bruce Banner\Documents\GitHub\ADC_experiments\ideal_sims\almost_ideal_curr_src.asc

Direct Newton iteration failed to find .op point.  (Use ".option noopiter" to skip.)
Starting Gmin stepping
Gmin = 10
Gmin = 1.07374
Gmin = 0.115292
Gmin = 0.0123794
Gmin = 0.00132923
vernier = 0.5
Gmin = 0.000247786
vernier = 0.25
vernier = 0.125
vernier = 0.0625
vernier = 0.03125
Gmin = 0.000250497
vernier = 0.015625
vernier = 0.0078125
Gmin = 0.0002471
vernier = 0.0104167
vernier = 0.0138889
Gmin = 0.000239924
vernier = 0.0185185
vernier = 0.0246913
Gmin = 0.000228919
vernier = 0.0329218
Gmin = 0.000212634
vernier = 0.0438957
vernier = 0.0585276
Gmin = 0.000187914
vernier = 0.0780367
vernier = 0.104049
Gmin = 0.000154415
vernier = 0.138732
Gmin = 0.000113563
vernier = 0.184976
vernier = 0.246634
Gmin = 6.81553e-005
vernier = 0.328846
vernier = 0.438461
Gmin = 3.05712e-005
vernier = 0.584614
Gmin = 8.89541e-006
vernier = 0.779486
vernier = 1
Gmin = 1.25198e-006
Gmin = 1.34431e-007
vernier = 0.5
vernier = 0.25
vernier = 0.125
Gmin = 6.11809e-008
vernier = 0.0625
vernier = 0.03125
vernier = 0.015625
vernier = 0.0078125
Gmin = 5.88671e-008
vernier = 0.00390625
vernier = 0.00195313
Gmin = 5.86091e-008
vernier = 0.00260417
vernier = 0.00347222
Gmin = 5.81784e-008
vernier = 0.00462963
vernier = 0.00617283
Gmin = 5.74982e-008
vernier = 0.00823044
Gmin = 5.64442e-008
vernier = 0.0109739
vernier = 0.0146319
Gmin = 5.47189e-008
vernier = 0.0195092
vernier = 0.0260122
Gmin = 5.20784e-008
vernier = 0.034683
Gmin = 4.81838e-008
vernier = 0.046244
vernier = 0.0616586
Gmin = 4.23033e-008
vernier = 0.0822114
vernier = 0.109615
Gmin = 3.44027e-008
vernier = 0.146154
Gmin = 2.48952e-008
vernier = 0.194871
vernier = 0.259828
Gmin = 1.45491e-008
vernier = 0.346438
vernier = 0.461917
Gmin = 6.26335e-009
vernier = 0.615889
Gmin = 1.71312e-009
vernier = 0.821185
vernier = 1
Gmin = 2.28868e-010
Gmin = 2.45745e-011
Gmin = 2.63867e-012
Gmin = 2.83325e-013
Gmin = 0
Gmin stepping succeeded in finding the operating point.

Ignoring empty pin current: Ix(x1:fb)
Ignoring empty pin current: Ix(x1:ref)
Ignoring empty pin current: Ix(x2:fb)
Ignoring empty pin current: Ix(x2:ref)
Ignoring empty pin current: Ix(x1:fb)
Ignoring empty pin current: Ix(x1:ref)
Ignoring empty pin current: Ix(x2:fb)
Ignoring empty pin current: Ix(x2:ref)
.step res=1000
.step res=10000
.step res=100000

Date: Thu Aug 01 14:37:20 2019
Total elapsed time: 0.525 seconds.

tnom = 27
temp = 27
method = modified trap
totiter = 5116
traniter = 2519
tranpoints = 1239
accept = 1196
rejected = 43
matrix size = 23
fillins = 3
Matrix Compiler1: 2.51 KB object code size  0.5/0.4/[0.1]
Matrix Compiler2: 2.43 KB object code size  0.4/0.5/[0.4]

