Circuit: * C:\Users\Bruce Banner\Documents\GitHub\ADC_experiments\ideal_sims\dyn_comparator.asc

WARNING: Specified period is not longer than the sum of Trise, Tfall, and Ton for v5.  Increasing period to 4.42971e-312
WARNING: Less than two connections to node _CLKRAW.  This node is used by E1.
WARNING: Less than two connections to node NC_01.  This node is used by V5.
WARNING: Less than two connections to node RESULT.  This node is used by A1.
WARNING: Less than two connections to node RESULT_NORMAL.  This node is used by A4.
WARNING: Less than two connections to node DONE.  This node is used by A7.
WARNING: Less than two connections to node DONE_NORMAL.  This node is used by A2.
Direct Newton iteration failed to find .op point.  (Use ".option noopiter" to skip.)
Starting Gmin stepping
Gmin = 10
Gmin = 1.07374
Gmin = 0.115292
Gmin = 0.0123794
Gmin = 0.00132923
Gmin = 0.000142725
Gmin = 1.5325e-005
Gmin = 1.6455e-006
Gmin = 1.76685e-007
Gmin = 1.89714e-008
Gmin = 2.03704e-009
Gmin = 2.18725e-010
Gmin = 2.34854e-011
Gmin = 2.52173e-012
Gmin = 2.70769e-013
Gmin = 2.90735e-014
Gmin = 0
Gmin stepping succeeded in finding the operating point.

.step input=-0.0001
.step input=-9e-005
.step input=-8e-005
.step input=-7e-005
.step input=-6e-005
.step input=-5e-005
.step input=-4e-005
.step input=-3e-005
.step input=-2e-005
.step input=-1e-005
.step input=-3.30872e-024
.step input=1e-005
.step input=2e-005
.step input=3e-005
.step input=4e-005
.step input=5e-005
.step input=6e-005
.step input=7e-005
.step input=8e-005
.step input=9e-005
.step input=0.0001

Date: Wed Jul 24 16:46:43 2019
Total elapsed time: 10.724 seconds.

tnom = 27
temp = 27
method = modified trap
totiter = 3737
traniter = 3270
tranpoints = 1447
accept = 1318
rejected = 129
matrix size = 168
fillins = 14
Thread vector: 91.9/66.0[3] 10.1/7.8[3] 5.6/4.6[3] 2.3/2.4[1]  2592/500
Matrix Compiler1: 29.86 KB object code size  6.5/3.7/[2.5]
Matrix Compiler2: 22.52 KB object code size  3.7/4.1/[1.9]

