Circuit: * C:\Users\Bruce Banner\Documents\GitHub\ADC_experiments\ideal_sims\skewed_inverters.asc

Warning: toxe, toxp and dtox all given and toxe != toxp + dtox; dtox ignored.
Warning: toxe, toxp and dtox all given and toxe != toxp + dtox; dtox ignored.
Warning: toxe, toxp and dtox all given and toxe != toxp + dtox; dtox ignored.

Date: Wed Jul 24 10:42:26 2019
Total elapsed time: 0.138 seconds.

tnom = 27
temp = 27
method = trap
totiter = 2055
traniter = 0
tranpoints = 0
accept = 0
rejected = 0
matrix size = 31
fillins = 0
solver = Normal
Matrix Compiler1: 2.72 KB object code size  0.4/0.2/[0.1]
Matrix Compiler2: 3.46 KB object code size  0.2/0.4/[0.2]

