Circuit: * C:\Users\Bruce Banner\Documents\GitHub\ADC_experiments\ideal_sims\tb_comparator.asc

WARNING: Specified period is not longer than the sum of Trise, Tfall, and Ton for v5.  Increasing period to 4.42981e-312
WARNING: Less than two connections to node _CLKRAW.  This node is used by E1.
WARNING: Less than two connections to node NC_01.  This node is used by V5.
Direct Newton iteration for .op point succeeded.

Date: Wed Jul 24 17:31:13 2019
Total elapsed time: 0.173 seconds.

tnom = 27
temp = 27
method = trap
totiter = 43
traniter = 0
tranpoints = 0
accept = 0
rejected = 0
matrix size = 244
fillins = 26
solver = Alternate
Matrix Compiler1:    2019 opcodes
Matrix Compiler2:    2190 opcodes
